Version 4
SHEET 1 1404 680
WIRE -160 -112 -256 -112
WIRE 80 -112 -80 -112
WIRE 144 -112 80 -112
WIRE 272 -112 224 -112
WIRE 352 -112 272 -112
WIRE 400 -112 352 -112
WIRE 560 -112 400 -112
WIRE -256 -64 -256 -112
WIRE -96 -32 -96 -64
WIRE -96 0 -96 -32
WIRE 80 0 80 -112
WIRE 272 0 272 -112
WIRE 400 0 400 -112
WIRE 560 0 560 -112
WIRE 0 16 -32 16
WIRE 32 16 0 16
WIRE 1216 32 1216 -64
WIRE 1344 32 1344 -64
WIRE 32 48 -32 48
WIRE 32 64 32 48
WIRE -256 128 -256 16
WIRE -32 128 -256 128
WIRE 80 128 80 80
WIRE 80 128 -32 128
WIRE 272 128 272 64
WIRE 272 128 80 128
WIRE 400 128 400 80
WIRE 400 128 272 128
WIRE 560 128 560 80
WIRE 560 128 400 128
WIRE 80 160 80 128
WIRE 752 192 656 192
WIRE 880 192 816 192
WIRE 80 352 48 352
WIRE 192 352 112 352
WIRE 80 368 80 352
WIRE 96 368 96 336
WIRE 112 368 112 352
WIRE 784 368 784 288
WIRE 880 384 880 192
WIRE 880 384 816 384
WIRE 928 384 880 384
WIRE 1088 384 1008 384
WIRE 656 400 656 192
WIRE 656 400 128 400
WIRE 752 400 656 400
WIRE 880 416 816 416
WIRE 48 432 -80 432
WIRE 192 432 128 432
WIRE 880 448 880 416
WIRE 1088 448 1088 384
WIRE 1216 464 1136 464
WIRE 192 480 192 432
WIRE 784 512 784 432
WIRE 96 544 96 464
WIRE 880 576 880 528
WIRE 1088 576 1088 528
FLAG -144 -64 0
FLAG 80 160 0
FLAG -96 -32 vc
FLAG 0 16 vc
FLAG 352 -112 vo
FLAG 1088 576 0
FLAG 1136 512 0
FLAG 1216 464 vo
FLAG 880 576 0
FLAG 784 512 V-
FLAG 784 288 V+
FLAG 48 352 0
FLAG 96 336 0
FLAG 192 352 V-
FLAG 192 560 0
FLAG 96 544 V+
FLAG -80 432 vc
FLAG 1344 112 0
FLAG 1216 112 0
FLAG 1216 -64 V-
FLAG 1344 -64 V+
SYMBOL sw 80 -16 R0
SYMATTR InstName S1
SYMATTR Value MYSW
SYMBOL sw -176 -112 R270
SYMATTR InstName S2
SYMATTR Value MYSW
SYMBOL voltage -256 -80 R0
WINDOW 123 0 0 Left 0
WINDOW 39 0 0 Left 0
SYMATTR InstName V1
SYMATTR Value 5
SYMBOL ind 128 -96 R270
WINDOW 0 32 56 VTop 2
WINDOW 3 5 56 VBottom 2
SYMATTR InstName L1
SYMATTR Value 131.8µ
SYMBOL cap 256 0 R0
SYMATTR InstName C1
SYMATTR Value 118.6n
SYMBOL res 384 -16 R0
SYMATTR InstName R1
SYMATTR Value 100
SYMBOL voltage -32 32 R0
WINDOW 123 0 0 Left 0
WINDOW 39 0 0 Left 0
SYMATTR InstName V2
SYMATTR Value 5
SYMBOL current 560 0 R0
WINDOW 123 0 0 Left 0
WINDOW 39 0 0 Left 0
SYMATTR InstName I1
SYMATTR Value 100m
SYMBOL Opamps\\LT1013 784 336 M0
SYMATTR InstName U1
SYMBOL res 1024 368 R90
WINDOW 0 0 56 VBottom 2
WINDOW 3 32 56 VTop 2
SYMATTR InstName R2
SYMATTR Value 3k
SYMBOL e 1088 432 M0
SYMATTR InstName E1
SYMATTR Value 0.48
SYMBOL voltage 880 432 R0
SYMATTR InstName V4
SYMATTR Value 1.2
SYMBOL cap 816 176 R90
WINDOW 0 0 32 VBottom 2
WINDOW 3 32 32 VTop 2
SYMATTR InstName C2
SYMATTR Value 5n
SYMBOL Comparators\\LT1712 96 416 R180
SYMATTR InstName U2
SYMBOL voltage 192 464 R0
WINDOW 123 0 0 Left 0
WINDOW 39 0 0 Left 0
SYMATTR InstName V5
SYMATTR Value PULSE(0 5 0 0.5u 0.5u 0 1u)
SYMBOL voltage 1216 128 R180
WINDOW 0 24 96 Left 2
WINDOW 3 24 16 Left 2
SYMATTR InstName V-
SYMATTR Value 5
SYMBOL voltage 1344 16 R0
WINDOW 123 0 0 Left 0
WINDOW 39 0 0 Left 0
SYMATTR InstName V+
SYMATTR Value 5
TEXT -208 248 Left 1 !.model MYSW SW(Ron=0.01 Roff=1Meg Vt=.5 Vh=0)
TEXT -208 280 Left 2 !.tran 1m
